XFLR5 v6.06

 Calculated polar for: FX76MP-120

 1 1 Reynolds number fixed          Mach number fixed         

 xtrf =   1.000 (top)        1.000 (bottom)
 Mach =   0.000     Re =     0.200 e 6     Ncrit =   9.000

  alpha     CL        CD       CDp       Cm    Top Xtr Bot Xtr   Cpmin    Chinge    XCp    
 ------- -------- --------- --------- -------- ------- ------- -------- --------- ---------
 -10.000   0.2360   0.09273   0.08836  -0.1736  0.9084  0.0373  -1.1001   0.0000   1.0257
  -9.000   0.2830   0.08330   0.07890  -0.1859  0.8941  0.0380  -1.2522   0.0000   0.9378
  -8.000   0.3199   0.07190   0.06754  -0.1846  0.8798  0.0427  -1.1501   0.0000   0.8520
  -7.000   0.2855   0.06901   0.06487  -0.1763  0.8599  0.0508  -1.3495   0.0000   0.8905
  -6.000   0.2380   0.06605   0.06207  -0.1672  0.8364  0.0516  -1.5818   0.0000   0.9746
  -5.000   0.1651   0.06204   0.05826  -0.1449  0.8107  0.0537  -1.6342   0.0000   1.1522
  -4.000	0.2134	0.05371	0.04955	-0.1472	0.7928	0.07115	-1.53905	0.0000	0.9914
  -3.000   0.2617   0.04537   0.04084  -0.1495  0.7748  0.0886  -1.4439   0.0000   0.8306
  -2.000	0.3582	0.03736	0.03142	-0.1488	0.7610	0.0819	-1.35685	0.0000	0.70405
  -1.000   0.4547   0.02935   0.02199  -0.1480  0.7472  0.0752  -1.2698   0.0000   0.5775
   0.000	0.6134	0.02733	0.02048	-0.1571	0.7374	0.3835	-1.2213	0.0000	0.5298
   1.000	0.7721	0.02531	0.01897	-0.1661	0.7276	0.6917	-1.1729	0.0000	0.4820
   2.000   0.9308   0.02329   0.01746  -0.1752  0.7178  1.0000  -1.1244   0.0000   0.4343
   3.000   1.0330   0.02331   0.01728  -0.1738  0.6980  1.0000  -1.2199   0.0000   0.4128
   4.000   1.2051   0.02074   0.01453  -0.1831  0.6919  1.0000  -1.3850   0.0000   0.3949
   5.000   1.2845   0.02100   0.01483  -0.1777  0.6666  1.0000  -1.4865   0.0000   0.3797
   6.000   1.3838   0.02070   0.01467  -0.1755  0.6412  1.0000  -1.6625   0.0000   0.3666
   7.000   1.4894   0.02004   0.01406  -0.1742  0.6102  1.0000  -1.8675   0.0000   0.3550
   8.000   1.5905   0.01979   0.01381  -0.1723  0.5680  1.0000  -2.0737   0.0000   0.3446
   9.000   1.6418   0.02214   0.01628  -0.1638  0.5208  1.0000  -2.5556   0.0000   0.3343
  10.000   1.6870   0.02516   0.01921  -0.1552  0.4641  1.0000  -3.0987   0.0000   0.3246
  11.000   1.6995   0.03045   0.02450  -0.1441  0.4003  1.0000  -3.5407   0.0000   0.3153
  12.000   1.6908   0.03818   0.03214  -0.1328  0.3266  1.0000  -3.9251   0.0000   0.3069
  13.000   1.6822   0.04749   0.04132  -0.1239  0.2570  1.0000  -4.3119   0.0000   0.2998
  14.000   1.6641   0.05898   0.05270  -0.1166  0.1900  1.0000  -4.6497   0.0000   0.2939
  15.000	1.6045	0.07788	0.07128	-0.1127	0.1148	1.0000	-4.801	0.0000	0.29175
  16.000   1.5449   0.09678   0.08986  -0.1087  0.0395  1.0000  -4.9523   0.0000   0.2896
  17.000   1.5116   0.11473   0.10833  -0.1099  0.0301  1.0000  -5.1782   0.0000   0.2895
  18.000   1.4966   0.12907   0.12300  -0.1109  0.0258  1.0000  -5.4684   0.0000   0.2885
  19.000   1.5176   0.13713   0.13153  -0.1107  0.0244  1.0000  -5.9993   0.0000   0.2847
  20.000   1.5279   0.14676   0.14186  -0.1129  0.0235  1.0000  -6.4269   0.0000   0.2830
