XFLR5 v6.06

 Calculated polar for: FX76MP-120

 1 1 Reynolds number fixed          Mach number fixed         

 xtrf =   1.000 (top)        1.000 (bottom)
 Mach =   0.000     Re =     0.300 e 6     Ncrit =   9.000

  alpha     CL        CD       CDp       Cm    Top Xtr Bot Xtr   Cpmin    Chinge    XCp    
 ------- -------- --------- --------- -------- ------- ------- -------- --------- ---------
 -10.000   0.2522   0.08961   0.08558  -0.1781  0.8672  0.0264  -1.1966   0.0000   0.9941
  -9.000   0.2944   0.07594   0.07190  -0.1874  0.8562  0.0272  -1.3632   0.0000   0.9170
  -8.000   0.3403   0.06778   0.06379  -0.1890  0.8447  0.0310  -1.1723   0.0000   0.8291
  -7.000   0.3561   0.05970   0.05578  -0.1952  0.8307  0.0379  -1.4677   0.0000   0.8174
  -6.000	0.3794	0.04892	0.04461	-0.1953	0.8163	0.0423	-1.6031	0.0000	0.7841
  -5.000	0.4028	0.03815	0.03345	-0.1954	0.8019	0.0466	-1.7385	0.0000	0.7508
  -4.000   0.4261   0.02737   0.02228  -0.1955  0.7875  0.0510  -1.8739   0.0000   0.7175
  -3.000   0.5227   0.02008   0.01358  -0.1953  0.7782  0.0511  -1.6496   0.0000   0.6291
  -2.000   0.5758   0.01825   0.01150  -0.1843  0.7634  0.0623  -1.2823   0.0000   0.5732
  -1.000   0.6909   0.01681   0.00979  -0.1846  0.7540  0.0842  -0.9441   0.0000   0.5181
   0.000	0.8223	0.01545	0.00948	-0.1895	0.7418	0.5421	-1.03825	0.0000	0.4847
   1.000   0.9537   0.01408   0.00916  -0.1944  0.7295  1.0000  -1.1324   0.0000   0.4513
   2.000   1.0737   0.01408   0.00887  -0.1963  0.7167  1.0000  -1.2340   0.0000   0.4288
   3.000   1.1830   0.01388   0.00853  -0.1961  0.6996  1.0000  -1.3391   0.0000   0.4102
   4.000   1.2887   0.01391   0.00853  -0.1954  0.6805  1.0000  -1.4581   0.0000   0.3944
   5.000   1.4013   0.01364   0.00816  -0.1957  0.6576  1.0000  -1.5986   0.0000   0.3809
   6.000   1.4909   0.01387   0.00844  -0.1918  0.6260  1.0000  -1.7849   0.0000   0.3683
   7.000   1.5585   0.01473   0.00930  -0.1842  0.5805  1.0000  -1.9526   0.0000   0.3561
   8.000   1.6243   0.01633   0.01082  -0.1771  0.5323  1.0000  -2.1574   0.0000   0.3452
   9.000   1.6602   0.01944   0.01390  -0.1665  0.4754  1.0000  -2.6440   0.0000   0.3346
  10.000   1.6803   0.02422   0.01854  -0.1555  0.4105  1.0000  -3.1047   0.0000   0.3249
  11.000   1.6832   0.03098   0.02513  -0.1443  0.3389  1.0000  -3.5126   0.0000   0.3161
  12.000   1.6892   0.03850   0.03254  -0.1352  0.2710  1.0000  -3.9513   0.0000   0.3082
  13.000   1.6791   0.04858   0.04239  -0.1267  0.1981  1.0000  -4.3316   0.0000   0.3014
  14.000   1.6630   0.06025   0.05385  -0.1198  0.1294  1.0000  -4.6737   0.0000   0.2958
  15.000   1.6007   0.07880   0.07186  -0.1138  0.0375  1.0000  -4.8288   0.0000   0.2925
  16.000   1.5657   0.09569   0.08917  -0.1117  0.0238  1.0000  -5.0917   0.0000   0.2905
  17.000   1.5389   0.11259   0.10654  -0.1125  0.0200  1.0000  -5.3997   0.0000   0.2899
  18.000   1.5165   0.12880   0.12318  -0.1146  0.0181  1.0000  -5.6857   0.0000   0.2899
  19.000   1.5257   0.13812   0.13292  -0.1143  0.0173  1.0000  -6.1469   0.0000   0.2866
  20.000   1.5314   0.14921   0.14455  -0.1181  0.0164  1.0000  -6.6383   0.0000   0.2861
