XFLR5 v6.06

 Calculated polar for: FX76MP-120

 1 1 Reynolds number fixed          Mach number fixed         

 xtrf =   1.000 (top)        1.000 (bottom)
 Mach =   0.000     Re =     0.400 e 6     Ncrit =   9.000

  alpha     CL        CD       CDp       Cm    Top Xtr Bot Xtr   Cpmin    Chinge    XCp    
 ------- -------- --------- --------- -------- ------- ------- -------- --------- ---------
 -10.000   0.2444   0.08717   0.08342  -0.1705  0.8441  0.0210  -1.0682   0.0000   0.9866
  -9.000   0.2925   0.07747   0.07369  -0.1816  0.8341  0.0259  -1.1828   0.0000   0.9007
  -8.000   0.3363   0.06678   0.06305  -0.1901  0.8235  0.0263  -1.3223   0.0000   0.8385
  -7.000   0.3473   0.05405   0.05041  -0.1932  0.8121  0.0232  -1.6648   0.0000   0.8261
  -6.000   0.3379   0.03750   0.03384  -0.2040  0.7977  0.0246  -2.3542   0.0000   0.8704
  -5.000   0.3824   0.02347   0.01881  -0.2066  0.7861  0.0349  -2.5042   0.0000   0.8025
  -4.000   0.4656   0.01826   0.01257  -0.2043  0.7756  0.0417  -2.0993   0.0000   0.6969
  -3.000   0.5441   0.01540   0.00914  -0.1981  0.7653  0.0466  -1.6794   0.0000   0.6192
  -2.000   0.6476   0.01377   0.00724  -0.1964  0.7553  0.0607  -1.1991   0.0000   0.5560
  -1.000   0.7342   0.01337   0.00678  -0.1915  0.7445  0.0809  -0.9743   0.0000   0.5115
   0.000   0.8245   0.01261   0.00617  -0.1872  0.7319  0.1454  -1.0411   0.0000   0.4759
   1.000   0.9722   0.01116   0.00642  -0.1957  0.7205  0.8748  -1.1500   0.0000   0.4487
   2.000   1.1141   0.01091   0.00615  -0.2029  0.7062  1.0000  -1.2653   0.0000   0.4279
   3.000   1.2313   0.01093   0.00598  -0.2044  0.6900  1.0000  -1.3770   0.0000   0.4103
   4.000   1.3291   0.01098   0.00601  -0.2020  0.6691  1.0000  -1.4927   0.0000   0.3948
   5.000   1.4242   0.01131   0.00637  -0.1993  0.6423  1.0000  -1.6258   0.0000   0.3811
   6.000   1.5083   0.01184   0.00678  -0.1944  0.6030  1.0000  -1.8076   0.0000   0.3684
   7.000   1.5775   0.01303   0.00791  -0.1873  0.5560  1.0000  -1.9773   0.0000   0.3566
   8.000   1.6272   0.01526   0.01000  -0.1776  0.5007  1.0000  -2.1793   0.0000   0.3453
   9.000   1.6538   0.01916   0.01373  -0.1662  0.4343  1.0000  -2.6372   0.0000   0.3348
  10.000   1.6751   0.02433   0.01874  -0.1560  0.3695  1.0000  -3.1016   0.0000   0.3254
  11.000   1.6871   0.03085   0.02513  -0.1461  0.2994  1.0000  -3.5439   0.0000   0.3169
  12.000   1.6873   0.03903   0.03306  -0.1366  0.2266  1.0000  -3.9619   0.0000   0.3091
  13.000   1.6827   0.04876   0.04254  -0.1285  0.1565  1.0000  -4.3647   0.0000   0.3024
  14.000   1.6556   0.06159   0.05492  -0.1210  0.0718  1.0000  -4.6569   0.0000   0.2968
  15.000   1.6148   0.07783   0.07111  -0.1156  0.0238  1.0000  -4.9140   0.0000   0.2930
  16.000   1.5754   0.09533   0.08909  -0.1133  0.0168  1.0000  -5.1494   0.0000   0.2910
  17.000   1.5604   0.11042   0.10467  -0.1137  0.0158  1.0000  -5.5563   0.0000   0.2895
  18.000   1.5435   0.12609   0.12081  -0.1158  0.0151  1.0000  -5.9226   0.0000   0.2892
  19.000   1.5406   0.13911   0.13425  -0.1183  0.0146  1.0000  -6.3683   0.0000   0.2883
  20.000   1.5435   0.15118   0.14675  -0.1222  0.0135  1.0000  -6.8839   0.0000   0.2880
