XFLR5 v6.06

 Calculated polar for: FX76MP-120

 1 1 Reynolds number fixed          Mach number fixed         

 xtrf =   1.000 (top)        1.000 (bottom)
 Mach =   0.000     Re =     0.500 e 6     Ncrit =   9.000

  alpha     CL        CD       CDp       Cm    Top Xtr Bot Xtr   Cpmin    Chinge    XCp    
 ------- -------- --------- --------- -------- ------- ------- -------- --------- ---------
 -10.000   0.2353   0.08760   0.08401  -0.1702  0.8277  0.0171  -1.2677   0.0000   1.0131
  -9.000   0.2676   0.07376   0.07023  -0.1779  0.8196  0.0179  -1.5040   0.0000   0.9472
  -8.000   0.3112   0.06214   0.05858  -0.1862  0.8092  0.0151  -1.6840   0.0000   0.8735
  -7.000   0.2969   0.04377   0.04039  -0.2000  0.7974  0.0179  -2.6824   0.0000   0.9462
  -6.000   0.2963   0.01901   0.01424  -0.2113  0.7839  0.0242  -3.7002   0.0000   0.9821
  -5.000   0.3826   0.01634   0.01093  -0.2086  0.7755  0.0300  -2.8975   0.0000   0.8076
  -4.000   0.4771   0.01613   0.01061  -0.2055  0.7656  0.0373  -2.1175   0.0000   0.6886
  -3.000   0.5694   0.01276   0.00661  -0.2023  0.7570  0.0442  -1.6583   0.0000   0.6101
  -2.000   0.6629   0.01193   0.00565  -0.1987  0.7464  0.0575  -1.1987   0.0000   0.5522
  -1.000   0.7515   0.01135   0.00505  -0.1940  0.7360  0.0762  -0.9874   0.0000   0.5087
   0.000   0.8568   0.01069   0.00450  -0.1928  0.7243  0.1554  -1.0634   0.0000   0.4738
   1.000   0.9799   0.00961   0.00503  -0.1965  0.7126  0.8021  -1.1573   0.0000   0.4478
   2.000   1.1389   0.00918   0.00467  -0.2072  0.6982  1.0000  -1.2841   0.0000   0.4276
   3.000   1.2441   0.00943   0.00486  -0.2064  0.6809  1.0000  -1.3879   0.0000   0.4102
   4.000   1.3484   0.00963   0.00493  -0.2054  0.6581  1.0000  -1.5092   0.0000   0.3951
   5.000   1.4411   0.01007   0.00533  -0.2022  0.6280  1.0000  -1.6452   0.0000   0.3814
   6.000   1.5181   0.01081   0.00602  -0.1960  0.5834  1.0000  -1.8201   0.0000   0.3687
   7.000   1.5831   0.01228   0.00730  -0.1882  0.5332  1.0000  -1.9857   0.0000   0.3568
   8.000   1.6253   0.01488   0.00976  -0.1776  0.4696  1.0000  -2.1816   0.0000   0.3454
   9.000   1.6527   0.01905   0.01372  -0.1667  0.4018  1.0000  -2.6425   0.0000   0.3351
  10.000   1.6752   0.02436   0.01885  -0.1568  0.3361  1.0000  -3.1115   0.0000   0.3259
  11.000   1.6885   0.03089   0.02518  -0.1472  0.2641  1.0000  -3.5606   0.0000   0.3174
  12.000   1.6881   0.03920   0.03319  -0.1376  0.1892  1.0000  -3.9771   0.0000   0.3097
  13.000   1.6858   0.04874   0.04245  -0.1297  0.1242  1.0000  -4.3894   0.0000   0.3029
  14.000   1.6480   0.06271   0.05591  -0.1215  0.0373  1.0000  -4.6337   0.0000   0.2975
  15.000   1.6233   0.07729   0.07073  -0.1167  0.0166  1.0000  -4.9535   0.0000   0.2933
  16.000   1.6168   0.09030   0.08420  -0.1146  0.0142  1.0000  -5.4464   0.0000   0.2899
  17.000   1.5952   0.10603   0.10042  -0.1144  0.0132  1.0000  -5.8363   0.0000   0.2883
  18.000   1.5742   0.12231   0.11717  -0.1163  0.0128  1.0000  -6.2059   0.0000   0.2880
  19.000   1.5595   0.13777   0.13305  -0.1199  0.0122  1.0000  -6.6085   0.0000   0.2884
  20.000   1.5523   0.15185   0.14751  -0.1246  0.0114  1.0000  -7.0631   0.0000   0.2890
