XFLR5 v6.06

 Calculated polar for: FX76MP-120

 1 1 Reynolds number fixed          Mach number fixed         

 xtrf =   1.000 (top)        1.000 (bottom)
 Mach =   0.000     Re =     0.600 e 6     Ncrit =   9.000

  alpha     CL        CD       CDp       Cm    Top Xtr Bot Xtr   Cpmin    Chinge    XCp    
 ------- -------- --------- --------- -------- ------- ------- -------- --------- ---------
 -10.000   0.2205   0.08837   0.08499  -0.1645  0.8169  0.0170  -1.2289   0.0000   1.0377
  -9.000   0.2709   0.07660   0.07318  -0.1743  0.8083  0.0170  -1.3074   0.0000   0.9248
  -8.000   0.3019   0.06214   0.05878  -0.1833  0.7996  0.0131  -1.6900   0.0000   0.8829
  -7.000   0.2057   0.01854   0.01410  -0.2137  0.7841  0.0167  -4.8122   0.0000   1.3215
  -6.000   0.2940   0.01617   0.01121  -0.2117  0.7754  0.0236  -3.8821   0.0000   0.9894
  -5.000   0.3873   0.01505   0.00978  -0.2088  0.7681  0.0265  -2.9260   0.0000   0.8014
  -4.000   0.4838   0.01328   0.00768  -0.2068  0.7583  0.0345  -2.1993   0.0000   0.6851
  -3.000   0.5790   0.01150   0.00549  -0.2038  0.7489  0.0420  -1.6614   0.0000   0.6068
  -2.000   0.6680   0.01067   0.00461  -0.1991  0.7395  0.0538  -1.2026   0.0000   0.5505
  -1.000   0.7652   0.01007   0.00392  -0.1962  0.7297  0.0718  -0.9977   0.0000   0.5068
   0.000   0.8621   0.00972   0.00374  -0.1933  0.7177  0.1452  -1.0681   0.0000   0.4730
   1.000   0.9902   0.00856   0.00404  -0.1981  0.7054  0.7424  -1.1653   0.0000   0.4473
   2.000   1.1536   0.00831   0.00400  -0.2099  0.6901  1.0000  -1.2948   0.0000   0.4277
   3.000   1.2555   0.00845   0.00411  -0.2084  0.6729  1.0000  -1.3971   0.0000   0.4102
   4.000   1.3565   0.00878   0.00437  -0.2069  0.6491  1.0000  -1.5165   0.0000   0.3952
   5.000   1.4471   0.00928   0.00482  -0.2032  0.6158  1.0000  -1.6528   0.0000   0.3815
   6.000   1.5221   0.01027   0.00558  -0.1967  0.5656  1.0000  -1.8259   0.0000   0.3687
   7.000   1.5861   0.01181   0.00697  -0.1889  0.5103  1.0000  -1.9906   0.0000   0.3569
   8.000   1.6240   0.01472   0.00966  -0.1777  0.4416  1.0000  -2.1835   0.0000   0.3455
   9.000   1.6585   0.01868   0.01346  -0.1680  0.3794  1.0000  -2.6681   0.0000   0.3355
  10.000   1.6753   0.02441   0.01891  -0.1575  0.3069  1.0000  -3.1190   0.0000   0.3262
  11.000   1.6891   0.03095   0.02520  -0.1479  0.2331  1.0000  -3.5710   0.0000   0.3178
  12.000   1.6904   0.03914   0.03308  -0.1385  0.1611  1.0000  -3.9951   0.0000   0.3100
  13.000   1.6901   0.04848   0.04215  -0.1306  0.0976  1.0000  -4.4155   0.0000   0.3032
  14.000   1.6557   0.06207   0.05534  -0.1224  0.0254  1.0000  -4.6700   0.0000   0.2977
  15.000   1.6483   0.07450   0.06809  -0.1181  0.0142  1.0000  -5.1211   0.0000   0.2930
  16.000   1.6393   0.08775   0.08174  -0.1156  0.0120  1.0000  -5.6135   0.0000   0.2895
  17.000   1.6140   0.10376   0.09824  -0.1150  0.0112  1.0000  -5.9894   0.0000   0.2878
  18.000   1.5893   0.12051   0.11547  -0.1167  0.0110  1.0000  -6.3459   0.0000   0.2875
  19.000   1.5637   0.13753   0.13294  -0.1205  0.0103  1.0000  -6.6558   0.0000   0.2885
  20.000   1.5555   0.15082   0.14667  -0.1240  0.0099  1.0000  -7.0625   0.0000   0.2885
