XFLR5 v6.06

 Calculated polar for: FX76MP-120

 1 1 Reynolds number fixed          Mach number fixed         

 xtrf =   1.000 (top)        1.000 (bottom)
 Mach =   0.000     Re =     0.700 e 6     Ncrit =   9.000

  alpha     CL        CD       CDp       Cm    Top Xtr Bot Xtr   Cpmin    Chinge    XCp    
 ------- -------- --------- --------- -------- ------- ------- -------- --------- ---------
 -10.000	-0.1275	0.0146	0.0097	-0.2140	0.7993	0.0013	-9.0757	0.0000	5.5060
  -9.000	-0.0194	0.0149	0.0101	-0.2139	0.7916	0.0064	-7.7424	0.0000	4.1271
  -8.000   0.0887   0.01525   0.01044  -0.2138  0.7839  0.0115  -6.4091   0.0000   2.7482
  -7.000   0.1968   0.01557   0.01083  -0.2137  0.7762  0.0166  -5.0758   0.0000   1.3693
  -6.000   0.2881   0.01405   0.00903  -0.2108  0.7696  0.0225  -4.0229   0.0000   1.0015
  -5.000   0.3856   0.01270   0.00732  -0.2087  0.7618  0.0256  -3.0363   0.0000   0.8035
  -4.000   0.4869   0.01154   0.00586  -0.2074  0.7501  0.0313  -2.2818   0.0000   0.6836
  -3.000   0.5813   0.01086   0.00508  -0.2038  0.7443  0.0380  -1.6458   0.0000   0.6053
  -2.000   0.6739   0.00984   0.00395  -0.1999  0.7340  0.0513  -1.1957   0.0000   0.5489
  -1.000   0.7752   0.00944   0.00341  -0.1979  0.7225  0.0668  -1.0046   0.0000   0.5057
   0.000   0.8624   0.00892   0.00313  -0.1929  0.7124  0.1364  -1.0696   0.0000   0.4724
   1.000   0.9837   0.00806   0.00323  -0.1961  0.6990  0.5597  -1.1626   0.0000   0.4465
   2.000   1.1587   0.00762   0.00354  -0.2108  0.6852  1.0000  -1.2990   0.0000   0.4276
   3.000   1.2635   0.00783   0.00363  -0.2099  0.6645  1.0000  -1.4034   0.0000   0.4103
   4.000   1.3636   0.00820   0.00393  -0.2081  0.6399  1.0000  -1.5227   0.0000   0.3953
   5.000   1.4502   0.00882   0.00444  -0.2037  0.6012  1.0000  -1.6571   0.0000   0.3815
   6.000   1.5301   0.00977   0.00527  -0.1983  0.5538  1.0000  -1.8352   0.0000   0.3691
   7.000   1.5842   0.01166   0.00686  -0.1886  0.4846  1.0000  -1.9897   0.0000   0.3569
   8.000   1.6262   0.01451   0.00953  -0.1783  0.4193  1.0000  -2.1945   0.0000   0.3457
   9.000   1.6622   0.01845   0.01329  -0.1689  0.3591  1.0000  -2.6855   0.0000   0.3358
  10.000   1.6774   0.02430   0.01881  -0.1581  0.2825  1.0000  -3.1322   0.0000   0.3265
  11.000   1.6896   0.03097   0.02518  -0.1483  0.2059  1.0000  -3.5792   0.0000   0.3180
  12.000   1.6945   0.03885   0.03279  -0.1392  0.1405  1.0000  -4.0183   0.0000   0.3103
  13.000   1.6816   0.04937   0.04286  -0.1304  0.0636  1.0000  -4.3862   0.0000   0.3035
  14.000   1.6627   0.06147   0.05480  -0.1232  0.0189  1.0000  -4.6957   0.0000   0.2978
  15.000   1.6614   0.07310   0.06677  -0.1189  0.0117  1.0000  -5.2047   0.0000   0.2930
  16.000   1.6408   0.08789   0.08209  -0.1160  0.0102  1.0000  -5.6055   0.0000   0.2897
  17.000   1.6065   0.10516   0.09991  -0.1155  0.0099  1.0000  -5.9114   0.0000   0.2884
  18.000   1.5786   0.12226   0.11749  -0.1172  0.0097  1.0000  -6.2291   0.0000   0.2883
  19.000   1.5713   0.13651   0.13209  -0.1204  0.0095  1.0000  -6.7166   0.0000   0.2881
  20.000   1.5668   0.14992   0.14590  -0.1245  0.0094  1.0000  -7.1976   0.0000   0.2881
