XFLR5 v6.06

 Calculated polar for: FX76MP-120

 1 1 Reynolds number fixed          Mach number fixed         

 xtrf =   1.000 (top)        1.000 (bottom)
 Mach =   0.000     Re =     0.800 e 6     Ncrit =   9.000

  alpha     CL        CD       CDp       Cm    Top Xtr Bot Xtr   Cpmin    Chinge    XCp    
 ------- -------- --------- --------- -------- ------- ------- -------- --------- ---------
 -10.000	-0.0952	0.0177	0.0133	-0.2193	0.7869	-0.0044	-8.5929	0.0000	5.0369
  -9.000	-0.0007	0.0164	0.0118	-0.2170	0.7819	0.0026	-7.4746	0.0000	3.8290
  -8.000   0.0938   0.01511   0.01042  -0.2147  0.7769  0.0096  -6.3563   0.0000   2.6211
  -7.000   0.1883   0.01382   0.00900  -0.2124  0.7719  0.0166  -5.2380   0.0000   1.4132
  -6.000   0.2844   0.01246   0.00736  -0.2103  0.7643  0.0215  -4.1276   0.0000   1.0092
  -5.000   0.3846   0.01139   0.00600  -0.2085  0.7562  0.0246  -3.0973   0.0000   0.8043
  -4.000	0.4822	0.01064	0.00512	-0.2059	0.7478	0.03105	-2.38395	0.0000	0.70475
  -3.000   0.5797   0.00989   0.00423  -0.2032  0.7394  0.0375  -1.6706   0.0000   0.6052
  -2.000   0.6749   0.00911   0.00334  -0.1998  0.7293  0.0505  -1.2061   0.0000   0.5483
  -1.000   0.7731   0.00880   0.00295  -0.1972  0.7187  0.0655  -1.0045   0.0000   0.5054
   0.000   0.8631   0.00833   0.00268  -0.1927  0.7077  0.1272  -1.0710   0.0000   0.4719
   1.000   0.9802   0.00786   0.00282  -0.1948  0.6911  0.4292  -1.1612   0.0000   0.4459
   2.000	1.1247	0.00763	0.00309	-0.2029	0.6747	0.7146	-1.28455	0.0000	0.42815
   3.000   1.2692   0.00740   0.00336  -0.2110  0.6583  1.0000  -1.4079   0.0000   0.4104
   4.000   1.3669   0.00784   0.00366  -0.2087  0.6301  1.0000  -1.5258   0.0000   0.3953
   5.000   1.4551   0.00844   0.00420  -0.2047  0.5905  1.0000  -1.6627   0.0000   0.3817
   6.000   1.5311   0.00955   0.00510  -0.1985  0.5387  1.0000  -1.8371   0.0000   0.3691
   7.000   1.5803   0.01166   0.00687  -0.1881  0.4608  1.0000  -1.9863   0.0000   0.3568
   8.000   1.6257   0.01448   0.00952  -0.1785  0.4005  1.0000  -2.1960   0.0000   0.3458
   9.000   1.6607   0.01854   0.01337  -0.1690  0.3367  1.0000  -2.6843   0.0000   0.3359
  10.000   1.6805   0.02413   0.01864  -0.1588  0.2613  1.0000  -3.1474   0.0000   0.3267
  11.000   1.6889   0.03105   0.02521  -0.1486  0.1820  1.0000  -3.5814   0.0000   0.3182
  12.000   1.6960   0.03877   0.03267  -0.1397  0.1211  1.0000  -4.0295   0.0000   0.3105
  13.000   1.6751   0.05005   0.04346  -0.1303  0.0411  1.0000  -4.3633   0.0000   0.3037
  14.000   1.6752   0.06025   0.05371  -0.1241  0.0156  1.0000  -4.7490   0.0000   0.2978
  15.000   1.6608   0.07342   0.06733  -0.1191  0.0097  1.0000  -5.1751   0.0000   0.2931
  16.000   1.6516   0.08671   0.08106  -0.1165  0.0095  1.0000  -5.6756   0.0000   0.2895
  17.000   1.6286   0.10223   0.09705  -0.1157  0.0094  1.0000  -6.0831   0.0000   0.2876
  18.000   1.6071   0.11842   0.11368  -0.1172  0.0093  1.0000  -6.4851   0.0000   0.2869
  19.000   1.5969   0.13308   0.12873  -0.1202  0.0091  1.0000  -6.9769   0.0000   0.2866
  20.000   1.5844   0.14807   0.14411  -0.1247  0.0089  1.0000  -7.4098   0.0000   0.2874
