XFLR5 v6.06

 Calculated polar for: FX76MP-120

 1 1 Reynolds number fixed          Mach number fixed         

 xtrf =   1.000 (top)        1.000 (bottom)
 Mach =   0.000     Re =     0.900 e 6     Ncrit =   9.000

  alpha     CL        CD       CDp       Cm    Top Xtr Bot Xtr   Cpmin    Chinge    XCp    
 ------- -------- --------- --------- -------- ------- ------- -------- --------- ---------
 -10.000	-0.0696	0.0223	0.0190	-0.2192	0.7848	0.0064	-8.2226	0.0000	64.8234
  -9.000   0.0067   0.01787   0.01383  -0.2162  0.7793  0.0079  -7.3938   0.0000  33.8669
  -8.000   0.0830   0.01346   0.00864  -0.2132  0.7738  0.0094  -6.5650   0.0000   2.9104
  -7.000   0.1832   0.01265   0.00780  -0.2116  0.7674  0.0165  -5.3408   0.0000   1.4410
  -6.000   0.2805   0.01130   0.00614  -0.2096  0.7600  0.0205  -4.2127   0.0000   1.0172
  -5.000   0.3858   0.01066   0.00529  -0.2088  0.7495  0.0236  -3.1310   0.0000   0.8035
  -4.000   0.4812   0.00984   0.00434  -0.2056  0.7440  0.0262  -2.3604   0.0000   0.6850
  -3.000   0.5782   0.00918   0.00361  -0.2027  0.7351  0.0370  -1.6893   0.0000   0.6051
  -2.000   0.6776   0.00868   0.00300  -0.2003  0.7234  0.0497  -1.2093   0.0000   0.5478
  -1.000   0.7697   0.00827   0.00258  -0.1962  0.7153  0.0637  -1.0036   0.0000   0.5052
   0.000   0.8626   0.00788   0.00233  -0.1923  0.7034  0.1201  -1.0715   0.0000   0.4716
   1.000   0.9733   0.00754   0.00249  -0.1929  0.6884  0.3524  -1.1576   0.0000   0.4453
   2.000   1.1489   0.00680   0.00295  -0.2082  0.6742  0.9120  -1.2939   0.0000   0.4268
   3.000   1.2739   0.00703   0.00315  -0.2119  0.6535  1.0000  -1.4117   0.0000   0.4105
   4.000   1.3717   0.00748   0.00347  -0.2097  0.6251  1.0000  -1.5298   0.0000   0.3955
   5.000   1.4582   0.00818   0.00402  -0.2053  0.5788  1.0000  -1.6666   0.0000   0.3818
   6.000   1.5332   0.00935   0.00497  -0.1990  0.5242  1.0000  -1.8399   0.0000   0.3692
   7.000   1.5779   0.01168   0.00689  -0.1878  0.4405  1.0000  -1.9843   0.0000   0.3568
   8.000   1.6304   0.01422   0.00932  -0.1794  0.3860  1.0000  -2.2135   0.0000   0.3461
   9.000   1.6606   0.01855   0.01336  -0.1692  0.3161  1.0000  -2.6869   0.0000   0.3361
  10.000   1.6814   0.02408   0.01857  -0.1592  0.2415  1.0000  -3.1542   0.0000   0.3269
  11.000   1.6894   0.03102   0.02515  -0.1489  0.1632  1.0000  -3.5875   0.0000   0.3183
  12.000   1.6966   0.03874   0.03260  -0.1400  0.1048  1.0000  -4.0360   0.0000   0.3106
  13.000   1.6771   0.04992   0.04337  -0.1306  0.0303  1.0000  -4.3750   0.0000   0.3039
  14.000   1.6822   0.05959   0.05310  -0.1248  0.0125  1.0000  -4.7894   0.0000   0.2979
  15.000   1.6828   0.07080   0.06475  -0.1201  0.0094  1.0000  -5.3255   0.0000   0.2928
  16.000   1.6769   0.08355   0.07792  -0.1173  0.0091  1.0000  -5.8648   0.0000   0.2889
  17.000   1.6582   0.09820   0.09303  -0.1159  0.0090  1.0000  -6.3177   0.0000   0.2864
  18.000   1.6355   0.11444   0.10971  -0.1170  0.0088  1.0000  -6.7375   0.0000   0.2855
  19.000   1.6182   0.13013   0.12582  -0.1199  0.0086  1.0000  -7.1861   0.0000   0.2854
  20.000   1.6050   0.14527   0.14133  -0.1243  0.0083  1.0000  -7.6451   0.0000   0.2860
