XFLR5 v6.06

 Calculated polar for: FX76MP-120

 1 1 Reynolds number fixed          Mach number fixed         

 xtrf =   1.000 (top)        1.000 (bottom)
 Mach =   0.000     Re =     1.000 e 6     Ncrit =   9.000

  alpha     CL        CD       CDp       Cm    Top Xtr Bot Xtr   Cpmin    Chinge    XCp    
 ------- -------- --------- --------- -------- ------- ------- -------- --------- ---------
 -10.000	-0.0896	0.0191	0.0155	-0.2182	0.7816	0.0058	-8.6034	0.0000	-71.0040
  -9.000  -0.0066   0.01577   0.01153  -0.2152  0.7760  0.0075  -7.6502   0.0000  -33.9387
  -8.000   0.0764   0.01242   0.00754  -0.2122  0.7704  0.0092  -6.6970   0.0000   3.1266
  -7.000   0.1790   0.01176   0.00690  -0.2109  0.7635  0.0164  -5.4201   0.0000   1.4649
  -6.000   0.2793   0.01066   0.00548  -0.2093  0.7552  0.0194  -4.2543   0.0000   1.0197
  -5.000   0.3809   0.00990   0.00458  -0.2077  0.7475  0.0225  -3.1841   0.0000   0.8076
  -4.000   0.4774   0.00912   0.00367  -0.2047  0.7407  0.0256  -2.4027   0.0000   0.6865
  -3.000   0.5757   0.00864   0.00316  -0.2020  0.7312  0.0364  -1.7071   0.0000   0.6054
  -2.000   0.6770   0.00829   0.00273  -0.2000  0.7200  0.0487  -1.2180   0.0000   0.5476
  -1.000   0.7673   0.00785   0.00228  -0.1954  0.7117  0.0618  -1.0030   0.0000   0.5050
   0.000   0.8613   0.00756   0.00207  -0.1918  0.6987  0.1120  -1.0713   0.0000   0.4713
   1.000   0.9686   0.00725   0.00223  -0.1915  0.6852  0.3073  -1.1553   0.0000   0.4449
   2.000   1.1475   0.00659   0.00275  -0.2078  0.6685  0.8864  -1.2934   0.0000   0.4267
   3.000   1.2779   0.00674   0.00297  -0.2127  0.6480  1.0000  -1.4150   0.0000   0.4105
   4.000   1.3754   0.00720   0.00330  -0.2104  0.6179  1.0000  -1.5330   0.0000   0.3956
   5.000   1.4573   0.00806   0.00394  -0.2051  0.5656  1.0000  -1.6661   0.0000   0.3818
   6.000   1.5298   0.00936   0.00497  -0.1984  0.5050  1.0000  -1.8369   0.0000   0.3691
   7.000   1.5816   0.01149   0.00676  -0.1886  0.4278  1.0000  -1.9887   0.0000   0.3570
   8.000   1.6298   0.01423   0.00933  -0.1795  0.3697  1.0000  -2.2137   0.0000   0.3462
   9.000   1.6618   0.01848   0.01329  -0.1696  0.2976  1.0000  -2.6937   0.0000   0.3362
  10.000   1.6795   0.02420   0.01865  -0.1591  0.2214  1.0000  -3.1501   0.0000   0.3270
  11.000   1.6888   0.03107   0.02516  -0.1490  0.1466  1.0000  -3.5885   0.0000   0.3185
  12.000   1.6988   0.03857   0.03242  -0.1404  0.0904  1.0000  -4.0485   0.0000   0.3108
  13.000   1.6812   0.04957   0.04306  -0.1311  0.0243  1.0000  -4.3950   0.0000   0.3039
  14.000   1.6849   0.05940   0.05304  -0.1250  0.0095  1.0000  -4.7862   0.0000   0.2979
  15.000   1.6988   0.06900   0.06300  -0.1210  0.0090  1.0000  -5.4366   0.0000   0.2926
  16.000   1.6983   0.08085   0.07526  -0.1179  0.0087  1.0000  -6.0199   0.0000   0.2884
  17.000   1.6788   0.09557   0.09043  -0.1163  0.0086  1.0000  -6.4804   0.0000   0.2857
  18.000   1.6616   0.11064   0.10591  -0.1167  0.0083  1.0000  -6.9618   0.0000   0.2841
  19.000   1.6401   0.12700   0.12269  -0.1195  0.0080  1.0000  -7.4022   0.0000   0.2841
  20.000   1.6274   0.14204   0.13807  -0.1238  0.0075  1.0000  -7.9002   0.0000   0.2845
